# Hierarchical Token Bucket Implementation for OMNeT++ & INET Framework
# Copyright (C) 2021 Marija Gajić (NTNU), Marcin Bosk (TUM), Susanna Schwarzmann (TU Berlin), Stanislav Lange (NTNU), and Thomas Zinner (NTNU)
# 
# This program is free software; you can redistribute it and/or
# modify it under the terms of the GNU General Public License
# as published by the Free Software Foundation; either version 2
# of the License, or (at your option) any later version.
# 
# This program is distributed in the hope that it will be useful,
# but WITHOUT ANY WARRANTY; without even the implied warranty of
# MERCHANTABILITY or FITNESS FOR A PARTICULAR PURPOSE.  See the
# GNU General Public License for more details.
# 
# You should have received a copy of the GNU General Public License
# along with this program; if not, write to the Free Software
# Foundation, Inc., 51 Franklin Street, Fifth Floor, Boston, MA  02110-1301, USA.
# 
[General]

sim-time-limit=250s
num-rngs = 1
seed-0-mt = 8
#output-scalar-file-append = false
#record-eventlog = false
#cmdenv-express-mode = false
#cmdenv-output-file = log.txt
#cmdenv-autoflush = true
**.cmdenv-log-level = info

*.visualizer.*.interfaceTableVisualizer.displayInterfaceTables = true

**.tcp.typename = "Tcp"
**.udp.typename = "Udp"



# tcp general settings
**.tcp.advertisedWindow = 65535                      # in bytes, corresponds with the maximal receiver buffer capacity (Note: normally, NIC queues should be at least this size)
**.tcp.delayedAcksEnabled = false                    # delayed ACK algorithm (RFC 1122) enabled/disabled
**.tcp.nagleEnabled = true                           # Nagle"s algorithm (RFC 896) enabled/disabled
**.tcp.limitedTransmitEnabled = false                # Limited Transmit algorithm (RFC 3042) enabled/disabled (can be used for TCPReno/TCPTahoe/TCPNewReno/TCPNoCongestionControl)
**.tcp.increasedIWEnabled = false                    # Increased Initial Window (RFC 3390) enabled/disabled
**.tcp.sackSupport = false                           # Selective Acknowledgment (RFC 2018, 2883, 3517) support (header option) (SACK will be enabled for a connection if both endpoints support it)
**.tcp.windowScalingSupport = false                  # Window Scale (RFC 1323) support (header option) (WS will be enabled for a connection if both endpoints support it)
**.tcp.timestampSupport = false                      # Timestamps (RFC 1323) support (header option) (TS will be enabled for a connection if both endpoints support it)
**.tcp.mss = 1452                                    # Maximum Segment Size (RFC 793) (header option)
**.tcp.tcpAlgorithmClass = "TcpReno"                 # TCPReno/TCPTahoe/TCPNewReno/TCPNoCongestionControl/DumbTCP
**.tcp.*.*.vector-recording = true
**.tcp.*.rtt.result-recording-modes = +vector
**.tcp.*.*.result-recording-modes = +vector
**.host*.app*.*.vector-recording = true
**.ppp.*xPk*.vector-recording = true
**.router*.ppp[0].queue.*.vector-recording = true
**.ppp.queue*.vector-recording = true

#**.tcp.*.*.vector-recording = true
#**.tcp.*.rtt.result-recording-modes = +vector
#**.tcp.*.*.result-recording-modes = -vector
#**.host*.app*.*.vector-recording = true
#**.server*.app*.*.vector-recording = true
#**.ppp.*xPk*.vector-recording = true
#**.ppp.*.vector-recording = true



#**.ppp.queue*.vector-recording = true
#**.ppp.queue*.vector-recording = true
#**.ppp.queue*.*.vector-recording = true
#**.ppp.queue.*.vector-recording = true
#**.ppp.queue.*.*.vector-recording = true
#**.ppp.queue*.vector-recording = true
*.router*.ppp[0].ppp.vector-recording = true
**.vector-recording = false

[Config liteCbaselineTestExampleTopoVisualizer]
description = "Visualize base topology"
network = baselineTestQoS
sim-time-limit=400s

output-vector-file = "${resultdir}/${configname}/${configname}-${runnumber}.vec"
output-scalar-file = "${resultdir}/${configname}/${configname}-${runnumber}.sca"

*.visualizer.*.interfaceTableVisualizer.displayInterfaceTables = false

**.crcMode = "computed"

*.nVID = ${numCli=1,2,10,20,30,40,50,60,70,80} # Number of video clients
*.nLVD = ${numCli} # Number of file download clients
*.nFDO = ${numCli} # Number of file download clients
*.nSSH = ${numCli} # Number of SSH clients
*.nVIP = ${numCli} # Number of VoIP clients
*.ncVIP = ${numCli} # Number of critical VoIP clients

**.numApps = 0

[Config liteCbaselineTestTokenQoS_base]
description = "All five applications - base configuration without any resource allocation"
network = baselineTestQoS
sim-time-limit=280s

output-vector-file = "${resultdir}/${configname}/${configname}-${runnumber}.vec"
output-scalar-file = "${resultdir}/${configname}/${configname}-${runnumber}.sca"

**.crcMode = "computed"
*.host*.numApps = 1

#*.configurator.config = xmldoc("configs/baseQoS/routerConfigBaseHtbTest.xml")

# File download client
*.hostFDO[*].hasTcp = true
*.hostFDO[*].app[0].typename = "improved5gns.apps.TcpFileDownloadApp"
*.hostFDO[*].app[0].localAddress = ""
*.hostFDO[*].app[0].localPort = -1 # port number to listen on
*.hostFDO[*].app[0].connectAddress = "serverFDO" # server address (may be symbolic)
*.hostFDO[*].app[0].connectPort = 1042 # port number to connect to
*.hostFDO[*].app[0].startTime = uniform(0.01s,1s) # time first session begins
*.hostFDO[*].app[0].stopTime = -1s # time of finishing sending, negative values mean forever
*.hostFDO[*].app[0].numRequestsPerSession = 1 # number of requests sent per session
*.hostFDO[*].app[0].requestLength = 800B # length of a request
*.hostFDO[*].app[0].replyLength = 10000KiB # length of a reply
*.hostFDO[*].app[0].thinkTime = 0.01s # time gap between requests
*.hostFDO[*].app[0].idleInterval = 1s # time gap between sessions
*.hostFDO[*].app[0].reconnectInterval = 1s # if connection breaks, waits this much before trying to reconnect
*.hostFDO[*].app[0].stopOperationExtraTime = -1s # extra time after lifecycle stop operation finished
*.hostFDO[*].app[0].stopOperationTimeout = 2s # timeout value for lifecycle stop operation

# File download server
*.serverFDO.hasTcp = true
*.serverFDO.numApps = 1
*.serverFDO.app[0].typename = "TcpGenericServerApp"
*.serverFDO.app[0].localAddress = "" # local address; may be left empty ("")
*.serverFDO.app[0].localPort = 1042 # localPort number to listen on
*.serverFDO.app[0].replyDelay = 0s #
*.serverFDO.app[0].stopOperationExtraTime = -1s # extra time after lifecycle stop operation finished
*.serverFDO.app[0].stopOperationTimeout  = 2s # timeout value for lifecycle stop operation

# Video client
**.hostVID[*].hasTcp = true
**.hostVID[*].app[0].typename = "improved5gns.apps.TCPVideoStreamCliAppV2lite"
**.hostVID[*].app[0].localAddress = "" # may be left empty ("")
**.hostVID[*].app[0].localPort = -1 # port number to listen on
**.hostVID[*].app[0].connectAddress = "serverVID" # server address (may be symbolic)
**.hostVID[*].app[0].connectPort = 1042 # port number to connect to
**.hostVID[*].app[0].dataTransferMode = "object"
**.hostVID[*].app[0].startTime = uniform(0.01s,1s) # time first session begins
**.hostVID[*].app[0].stopTime = -1s # time of finish sending, 0 means infinity
**.hostVID[*].app[0].idleInterval = 1s
**.hostVID[*].app[0].requestLength = 200B # length of a request
**.hostVID[*].app[0].reconnectInterval = 1s # if connection breaks, waits this much before trying to reconnect
**.hostVID[*].app[0].numRequestsPerSession = 1 # number of requests sent per session
**.hostVID[*].app[0].thinkTime = 1s # time gap between requests
**.hostVID[*].app[0].video_resolution = "360 480 720 1080" # how many kbits are required for 1 second of video for each representation (quality levels)
**.hostVID[*].app[0].manifest_size = 100000
**.hostVID[*].app[0].video_buffer_max_length = 30s #40s # buffer max length in seconds
**.hostVID[*].app[0].video_duration = int(uniform(120s,200s))#int(uniform(240s,320s)) # video length in seconds
**.hostVID[*].app[0].segment_length = 5s # video segment length in seconds
**.hostVID[*].app[0].useFlexibleBitrate = "flexible"

# Video server
*.serverVID.hasTcp = true
*.serverVID.numApps = 1
*.serverVID.app[0].typename = "TcpGenericServerApp"
*.serverVID.app[0].localAddress = "" # local address; may be left empty ("")
*.serverVID.app[0].localPort = 1042 # localPort number to listen on
*.serverVID.app[0].replyDelay = 0s #
*.serverVID.app[0].stopOperationExtraTime = -1s # extra time after lifecycle stop operation finished
*.serverVID.app[0].stopOperationTimeout  = 2s # timeout value for lifecycle stop operation

# Live Video client
**.hostLVD[*].hasTcp = true
**.hostLVD[*].app[0].typename = "improved5gns.apps.TCPLiveVideoStreamCliAppLite"
**.hostLVD[*].app[0].localAddress = "" # may be left empty ("")
**.hostLVD[*].app[0].localPort = -1 # port number to listen on
**.hostLVD[*].app[0].connectAddress = "serverLVD" # server address (may be symbolic)
**.hostLVD[*].app[0].connectPort = 1043 # port number to connect to
**.hostLVD[*].app[0].dataTransferMode = "object"
**.hostLVD[*].app[0].startTime = uniform(0.01s,1s) # time first session begins
**.hostLVD[*].app[0].stopTime = -1s # time of finish sending, 0 means infinity
**.hostLVD[*].app[0].idleInterval = 1s
**.hostLVD[*].app[0].requestLength = 200B # length of a request
**.hostLVD[*].app[0].reconnectInterval = 1s # if connection breaks, waits this much before trying to reconnect
**.hostLVD[*].app[0].numRequestsPerSession = 1 # number of requests sent per session
**.hostLVD[*].app[0].thinkTime = 1s # time gap between requests
**.hostLVD[*].app[0].video_resolution = "240 360 480 720 1080" # how many kbits are required for 1 second of video for each representation (quality levels)
**.hostLVD[*].app[0].manifest_size = 100000
**.hostLVD[*].app[0].video_buffer_max_length = 6s # buffer max length in seconds
**.hostLVD[*].app[0].video_duration = int(uniform(40s,70s)) # video length in seconds
**.hostLVD[*].app[0].segment_length = 1s # video segment length in seconds
**.hostLVD[*].app[0].useFlexibleBitrate = "flexible"
**.hostLVD[*].app[0].video_type = "live"
**.hostLVD[*].app[0].delay_threshold = 4
**.hostLVD[*].app[0].speedup_rate = 1.05

# Live Video server
*.serverLVD.hasTcp = true
*.serverLVD.numApps = 1
*.serverLVD.app[0].typename = "TcpGenericServerApp"
*.serverLVD.app[0].localAddress = "" # local address; may be left empty ("")
*.serverLVD.app[0].localPort = 1043 # localPort number to listen on
*.serverLVD.app[0].replyDelay = 0s #
*.serverLVD.app[0].stopOperationExtraTime = -1s # extra time after lifecycle stop operation finished
*.serverLVD.app[0].stopOperationTimeout  = 2s # timeout value for lifecycle stop operation

# Remote Shell Client
**.hostSSH[*].hasTcp = true
**.hostSSH[*].app[0].typename = "improved5gns.apps.TcpSimpleSshAppV2lite"
**.hostSSH[*].app[0].localAddress = "" # local address or empty ("")
**.hostSSH[*].app[0].localPort = -1 # local port number
**.hostSSH[*].app[0].connectAddress = "serverSSH" # server address (may be symbolic)
**.hostSSH[*].app[0].connectPort = 22  # port number to connect to
**.hostSSH[*].app[0].startTime = uniform(0.01s,1s) # time first session begins
**.hostSSH[*].app[0].stopTime = -1s # time of finishing sending, negative values mean forever
**.hostSSH[*].app[0].numCommands = 1 # user types this many commands in a session
**.hostSSH[*].app[0].commandLength = 10B # commands are this many characters (plus Enter)
**.hostSSH[*].app[0].keyPressDelay = 0.05s # delay between keypresses
**.hostSSH[*].app[0].commandOutputLength = 500B # commands produce this much output
**.hostSSH[*].app[0].thinkTime = 1s # user waits this much before starting to type new command
**.hostSSH[*].app[0].idleInterval = 1s # time gap between sessions
**.hostSSH[*].app[0].reconnectInterval = 1s # if connection breaks, user waits this much before trying to reconnect
**.hostSSH[*].app[0].stopOperationExtraTime = -1s # extra time after lifecycle stop operation finished
**.hostSSH[*].app[0].stopOperationTimeout = 2s # timeout value for lifecycle stop operation

# SSH server
*.serverSSH.hasTcp = true
*.serverSSH.numApps = 1
*.serverSSH.app[*].typename = "TcpGenericServerApp"
*.serverSSH.app[*].localAddress = "" # local address; may be left empty ("")
*.serverSSH.app[*].localPort = 22 # localPort number to listen on
*.serverSSH.app[*].replyDelay = 0s #
*.serverSSH.app[*].stopOperationExtraTime = -1s # extra time after lifecycle stop operation finished
*.serverSSH.app[*].stopOperationTimeout  = 2s # timeout value for lifecycle stop operation

# VoIP receiver
**.hostVIP[*].hasUdp = true
**.hostVIP[*].app[0].typename = "SimpleVoipReceiver"
**.hostVIP[*].app[0].localPort = 2000
**.hostVIP[*].app[0].emodelIe = 5 # Equipment impairment factor
**.hostVIP[*].app[0].emodelBpl = 10 # Packet-loss robustness factor
**.hostVIP[*].app[0].emodelA = 5 # Advantage factor
**.hostVIP[*].app[0].emodelRo = 93.2 # Basic signal-to-noise ratio
**.hostVIP[*].app[0].playoutDelay = 20ms # initial delay for beginning playout after receiving the first packet
**.hostVIP[*].app[0].adaptivePlayoutDelay = false # if true, adjust playoutDelay after each talkspurt
**.hostVIP[*].app[0].bufferSpace = 20 # buffer size in packets
**.hostVIP[*].app[0].mosSpareTime = 1s # spare time before calculating MOS (after calculated playout time of last packet)

# VoIP sender
**.serverVIP.hasUdp = true
**.serverVIP.numApps = parent.nVIP
**.serverVIP.app[*].typename = "SimpleVoipSender"
**.serverVIP.app[*].localPort = -1
**.serverVIP.app[*].destPort = 2000
**.serverVIP.app[*].destAddress = "hostVIP[" + string(index) + "]"
**.serverVIP.app[*].talkPacketSize = 40B # size of talk packets in bytes
**.serverVIP.app[*].talkspurtDuration = weibull(1.423s, 0.824s)
**.serverVIP.app[*].silenceDuration = weibull(0.899s, 1.089s)
**.serverVIP.app[*].packetizationInterval = 20ms # interval between sending voice packets
**.serverVIP.app[*].startTime = uniform(0.01s,1s) # time of start sending
**.serverVIP.app[*].stopTime = -1s # time of end of sending, -1 means forever

# Critical VoIP receiver
**.hostcVIP[*].hasUdp = true
**.hostcVIP[*].app[0].typename = "improved5gns.apps.SimpleVoipReceiverCustom"
**.hostcVIP[*].app[0].localPort = 2000
**.hostcVIP[*].app[0].emodelIe = 5 # Equipment impairment factor
**.hostcVIP[*].app[0].emodelBpl = 10 # Packet-loss robustness factor
**.hostcVIP[*].app[0].emodelA = 5 # Advantage factor
**.hostcVIP[*].app[0].emodelRo = 93.2 # Basic signal-to-noise ratio
**.hostcVIP[*].app[0].playoutDelay = 20ms # initial delay for beginning playout after receiving the first packet
**.hostcVIP[*].app[0].adaptivePlayoutDelay = false # if true, adjust playoutDelay after each talkspurt
**.hostcVIP[*].app[0].bufferSpace = 20 # buffer size in packets
**.hostcVIP[*].app[0].mosSpareTime = 1s # spare time before calculating MOS (after calculated playout time of last packet)

# Critical VoIP sender
**.servercVIP.hasUdp = true
**.servercVIP.numApps = parent.ncVIP
**.servercVIP.app[*].typename = "improved5gns.apps.SimpleVoipSenderCustom"
**.servercVIP.app[*].localPort = -1
**.servercVIP.app[*].destPort = 2000
**.servercVIP.app[*].destAddress = "hostcVIP[" + string(index) + "]"
**.servercVIP.app[*].talkPacketSize = 40B # size of talk packets in bytes
**.servercVIP.app[*].talkspurtDuration = weibull(1.423s, 0.824s)
**.servercVIP.app[*].silenceDuration = weibull(0.899s, 1.089s)
**.servercVIP.app[*].packetizationInterval = 2ms # interval between sending voice packets, changed from 20ms to 2ms for Critical VIP
**.servercVIP.app[*].startTime = uniform(0.01s,1s) # time of start sending
**.servercVIP.app[*].stopTime = -1s # time of end of sending, -1 means forever




#[Config qoeSlicingTestingBase_R100_Q35_M100_C100]
#description = "Configuration for qoeSlicingTestingBase_R100_Q35_M100_C100. All five applications. QoS employed. Guarantee Multiplier: 1.0; Ceil multiplier: 1.0"
#
#extends = liteCbaselineTestTokenQoS_base
#
#*.configurator.config = xmldoc("configs/baseQoS/qoeSlicingTestingBase_R100_Q35_M100_C100Routing.xml")
#
#*.nVID = 57 # Number of video clients
#*.nLVD = 26 # Number of live video client
#*.nFDO = 7 # Number of file download clients
#*.nSSH = 10 # Number of SSH clients
#*.nVIP = 40 # Number of VoIP clients
#
#.router*.ppp[0].queue.typename = "HtbQueue"
#*.router*.ppp[0].queue.numQueues = 5
#*.router*.ppp[0].queue.queue[*].typename = "DropTailQueue"
#*.router*.ppp[0].queue.packetCapacity = -1
#*.router*.ppp[0].queue.htbHysterisis = false
#*.router*.ppp[0].queue.htbTreeConfig = xmldoc("configs/htbTree/qoeSlicingTestingBase_R100_Q35_M100_C100HTB.xml")
#*.router*.ppp[0].queue.classifier.defaultGateIndex = 0
#*.router0.ppp[0].ppp.queue.classifier.packetDataFilters = "sourceAddress(10.0.0.0);sourceAddress(10.0.0.4);sourceAddress(10.0.0.8);sourceAddress(10.0.0.12);sourceAddress(10.0.0.16);sourceAddress(10.0.0.20);sourceAddress(10.0.0.24);sourceAddress(10.0.0.28);sourceAddress(10.0.0.32);sourceAddress(10.0.0.36);sourceAddress(10.0.0.40);sourceAddress(10.0.0.44);sourceAddress(10.0.0.48);sourceAddress(10.0.0.52);sourceAddress(10.0.0.56);sourceAddress(10.0.0.60);sourceAddress(10.0.0.64);sourceAddress(10.0.0.68);sourceAddress(10.0.0.72);sourceAddress(10.0.0.76);sourceAddress(10.0.0.80);sourceAddress(10.0.0.84);sourceAddress(10.0.0.88);sourceAddress(10.0.0.92);sourceAddress(10.0.0.96);sourceAddress(10.0.0.100);sourceAddress(10.0.0.104);sourceAddress(10.0.0.108);sourceAddress(10.0.0.112);sourceAddress(10.0.0.116);sourceAddress(10.0.0.120);sourceAddress(10.0.0.124);sourceAddress(10.0.0.128);sourceAddress(10.0.0.132);sourceAddress(10.0.0.136);sourceAddress(10.0.0.140);sourceAddress(10.0.0.144);sourceAddress(10.0.0.148);sourceAddress(10.0.0.152);sourceAddress(10.0.0.156);sourceAddress(10.0.0.160);sourceAddress(10.0.0.164);sourceAddress(10.0.0.168);sourceAddress(10.0.0.172);sourceAddress(10.0.0.176);sourceAddress(10.0.0.180);sourceAddress(10.0.0.184);sourceAddress(10.0.0.188);sourceAddress(10.0.0.192);sourceAddress(10.0.0.196);sourceAddress(10.0.0.200);sourceAddress(10.0.0.204);sourceAddress(10.0.0.208);sourceAddress(10.0.0.212);sourceAddress(10.0.0.216);sourceAddress(10.0.0.220);sourceAddress(10.0.0.224);sourceAddress(10.1.0.0);sourceAddress(10.1.0.4);sourceAddress(10.1.0.8);sourceAddress(10.1.0.12);sourceAddress(10.1.0.16);sourceAddress(10.1.0.20);sourceAddress(10.1.0.24);sourceAddress(10.1.0.28);sourceAddress(10.1.0.32);sourceAddress(10.1.0.36);sourceAddress(10.1.0.40);sourceAddress(10.1.0.44);sourceAddress(10.1.0.48);sourceAddress(10.1.0.52);sourceAddress(10.1.0.56);sourceAddress(10.1.0.60);sourceAddress(10.1.0.64);sourceAddress(10.1.0.68);sourceAddress(10.1.0.72);sourceAddress(10.1.0.76);sourceAddress(10.1.0.80);sourceAddress(10.1.0.84);sourceAddress(10.1.0.88);sourceAddress(10.1.0.92);sourceAddress(10.1.0.96);sourceAddress(10.1.0.100);sourceAddress(10.2.0.0);sourceAddress(10.2.0.4);sourceAddress(10.2.0.8);sourceAddress(10.2.0.12);sourceAddress(10.2.0.16);sourceAddress(10.2.0.20);sourceAddress(10.2.0.24);sourceAddress(10.3.0.0);sourceAddress(10.3.0.4);sourceAddress(10.3.0.8);sourceAddress(10.3.0.12);sourceAddress(10.3.0.16);sourceAddress(10.3.0.20);sourceAddress(10.3.0.24);sourceAddress(10.3.0.28);sourceAddress(10.3.0.32);sourceAddress(10.3.0.36);sourceAddress(10.3.0.40);sourceAddress(10.3.0.44);sourceAddress(10.3.0.48);sourceAddress(10.3.0.52);sourceAddress(10.3.0.56);sourceAddress(10.3.0.60);sourceAddress(10.3.0.64);sourceAddress(10.3.0.68);sourceAddress(10.3.0.72);sourceAddress(10.3.0.76);sourceAddress(10.3.0.80);sourceAddress(10.3.0.84);sourceAddress(10.3.0.88);sourceAddress(10.3.0.92);sourceAddress(10.3.0.96);sourceAddress(10.3.0.100);sourceAddress(10.3.0.104);sourceAddress(10.3.0.108);sourceAddress(10.3.0.112);sourceAddress(10.3.0.116);sourceAddress(10.3.0.120);sourceAddress(10.3.0.124);sourceAddress(10.3.0.128);sourceAddress(10.3.0.132);sourceAddress(10.3.0.136);sourceAddress(10.3.0.140);sourceAddress(10.3.0.144);sourceAddress(10.3.0.148);sourceAddress(10.3.0.152);sourceAddress(10.3.0.156);sourceAddress(10.4.0.0);sourceAddress(10.4.0.4);sourceAddress(10.4.0.8);sourceAddress(10.4.0.12);sourceAddress(10.4.0.16);sourceAddress(10.4.0.20);sourceAddress(10.4.0.24);sourceAddress(10.4.0.28);sourceAddress(10.4.0.32);sourceAddress(10.4.0.36)"
#*.router1.ppp[0].ppp.queue.classifier.packetDataFilters = "destinationAddress(10.0.0.0);destinationAddress(10.0.0.4);destinationAddress(10.0.0.8);destinationAddress(10.0.0.12);destinationAddress(10.0.0.16);destinationAddress(10.0.0.20);destinationAddress(10.0.0.24);destinationAddress(10.0.0.28);destinationAddress(10.0.0.32);destinationAddress(10.0.0.36);destinationAddress(10.0.0.40);destinationAddress(10.0.0.44);destinationAddress(10.0.0.48);destinationAddress(10.0.0.52);destinationAddress(10.0.0.56);destinationAddress(10.0.0.60);destinationAddress(10.0.0.64);destinationAddress(10.0.0.68);destinationAddress(10.0.0.72);destinationAddress(10.0.0.76);destinationAddress(10.0.0.80);destinationAddress(10.0.0.84);destinationAddress(10.0.0.88);destinationAddress(10.0.0.92);destinationAddress(10.0.0.96);destinationAddress(10.0.0.100);destinationAddress(10.0.0.104);destinationAddress(10.0.0.108);destinationAddress(10.0.0.112);destinationAddress(10.0.0.116);destinationAddress(10.0.0.120);destinationAddress(10.0.0.124);destinationAddress(10.0.0.128);destinationAddress(10.0.0.132);destinationAddress(10.0.0.136);destinationAddress(10.0.0.140);destinationAddress(10.0.0.144);destinationAddress(10.0.0.148);destinationAddress(10.0.0.152);destinationAddress(10.0.0.156);destinationAddress(10.0.0.160);destinationAddress(10.0.0.164);destinationAddress(10.0.0.168);destinationAddress(10.0.0.172);destinationAddress(10.0.0.176);destinationAddress(10.0.0.180);destinationAddress(10.0.0.184);destinationAddress(10.0.0.188);destinationAddress(10.0.0.192);destinationAddress(10.0.0.196);destinationAddress(10.0.0.200);destinationAddress(10.0.0.204);destinationAddress(10.0.0.208);destinationAddress(10.0.0.212);destinationAddress(10.0.0.216);destinationAddress(10.0.0.220);destinationAddress(10.0.0.224);destinationAddress(10.1.0.0);destinationAddress(10.1.0.4);destinationAddress(10.1.0.8);destinationAddress(10.1.0.12);destinationAddress(10.1.0.16);destinationAddress(10.1.0.20);destinationAddress(10.1.0.24);destinationAddress(10.1.0.28);destinationAddress(10.1.0.32);destinationAddress(10.1.0.36);destinationAddress(10.1.0.40);destinationAddress(10.1.0.44);destinationAddress(10.1.0.48);destinationAddress(10.1.0.52);destinationAddress(10.1.0.56);destinationAddress(10.1.0.60);destinationAddress(10.1.0.64);destinationAddress(10.1.0.68);destinationAddress(10.1.0.72);destinationAddress(10.1.0.76);destinationAddress(10.1.0.80);destinationAddress(10.1.0.84);destinationAddress(10.1.0.88);destinationAddress(10.1.0.92);destinationAddress(10.1.0.96);destinationAddress(10.1.0.100);destinationAddress(10.2.0.0);destinationAddress(10.2.0.4);destinationAddress(10.2.0.8);destinationAddress(10.2.0.12);destinationAddress(10.2.0.16);destinationAddress(10.2.0.20);destinationAddress(10.2.0.24);destinationAddress(10.3.0.0);destinationAddress(10.3.0.4);destinationAddress(10.3.0.8);destinationAddress(10.3.0.12);destinationAddress(10.3.0.16);destinationAddress(10.3.0.20);destinationAddress(10.3.0.24);destinationAddress(10.3.0.28);destinationAddress(10.3.0.32);destinationAddress(10.3.0.36);destinationAddress(10.3.0.40);destinationAddress(10.3.0.44);destinationAddress(10.3.0.48);destinationAddress(10.3.0.52);destinationAddress(10.3.0.56);destinationAddress(10.3.0.60);destinationAddress(10.3.0.64);destinationAddress(10.3.0.68);destinationAddress(10.3.0.72);destinationAddress(10.3.0.76);destinationAddress(10.3.0.80);destinationAddress(10.3.0.84);destinationAddress(10.3.0.88);destinationAddress(10.3.0.92);destinationAddress(10.3.0.96);destinationAddress(10.3.0.100);destinationAddress(10.3.0.104);destinationAddress(10.3.0.108);destinationAddress(10.3.0.112);destinationAddress(10.3.0.116);destinationAddress(10.3.0.120);destinationAddress(10.3.0.124);destinationAddress(10.3.0.128);destinationAddress(10.3.0.132);destinationAddress(10.3.0.136);destinationAddress(10.3.0.140);destinationAddress(10.3.0.144);destinationAddress(10.3.0.148);destinationAddress(10.3.0.152);destinationAddress(10.3.0.156);destinationAddress(10.4.0.0);destinationAddress(10.4.0.4);destinationAddress(10.4.0.8);destinationAddress(10.4.0.12);destinationAddress(10.4.0.16);destinationAddress(10.4.0.20);destinationAddress(10.4.0.24);destinationAddress(10.4.0.28);destinationAddress(10.4.0.32);destinationAddress(10.4.0.36)"
#
#**.connFIX0.datarate = 100000000bps
#**.connFIX0.delay = 40ms


[Config v1500l13000d68000f17000s500]
description = "Config v1500l13000d68000f17000s500"
extends = liteCbaselineTestTokenQoS_base

*.configurator.config = xmldoc("configs/baseQoS/v1500l13000d68000f17000s500routingtest1.xml")
*.nVIP = 35
*.nLVD = 39
*.nVID = 49
*.nFDO = 41
*.nSSH = 31

*.router*.ppp[0].queue.typename = "HtbQueue"
*.router*.ppp[0].queue.numQueues = 5
*.router*.ppp[0].queue.queue[*].typename = "DropTailQueue"
*.router*.ppp[0].queue.packetCapacity = -1
*.router*.ppp[0].queue.htbHysterisis = false
*.router*.ppp[0].queue.htbTreeConfig = xmldoc("configs/htbTree/v1500l13000d68000f17000s500_htb.xml")
*.router*.ppp[0].queue.classifier.defaultGateIndex = 0
*.router0.ppp[0].queue.classifier.packetFilters = [expr(ipv4.srcAddress.str() =~ "10.0.*.*"), expr(ipv4.srcAddress.str() =~ "10.1.*.*"), expr(ipv4.srcAddress.str() =~ "10.2.*.*"), expr(ipv4.srcAddress.str() =~ "10.3.*.*"), expr(ipv4.srcAddress.str() =~ "10.4.*.*")]
*.router1.ppp[0].queue.classifier.packetFilters = [expr(ipv4.destAddress.str() =~ "10.0.*.*"), expr(ipv4.destAddress.str() =~ "10.1.*.*"), expr(ipv4.destAddress.str() =~ "10.2.*.*"), expr(ipv4.destAddress.str() =~ "10.3.*.*"), expr(ipv4.destAddress.str() =~ "10.4.*.*")]

**.connFIX0.datarate = 100e6 bps
**.connFIX0.delay = 40ms

[Config v1500l10000d70000f18000s500]
description = "Config v1500l10000d70000f18000s500"
extends = liteCbaselineTestTokenQoS_base

*.configurator.config = xmldoc("configs/baseQoS/v1500l10000d70000f18000s500routingtest1.xml")
*.nVIP = 35
*.nLVD = 39
*.nVID = 49
*.nFDO = 41
*.nSSH = 31

*.router*.ppp[0].queue.typename = "HtbQueue"
*.router*.ppp[0].queue.numQueues = 5
*.router*.ppp[0].queue.queue[*].typename = "DropTailQueue"
*.router*.ppp[0].queue.packetCapacity = -1
*.router*.ppp[0].queue.htbHysterisis = false
*.router*.ppp[0].queue.htbTreeConfig = xmldoc("configs/htbTree/v1500l10000d70000f18000s500_htb.xml")
*.router*.ppp[0].queue.classifier.defaultGateIndex = 0
*.router0.ppp[0].queue.classifier.packetFilters = [expr(ipv4.srcAddress.str() =~ "10.0.*.*"), expr(ipv4.srcAddress.str() =~ "10.1.*.*"), expr(ipv4.srcAddress.str() =~ "10.2.*.*"), expr(ipv4.srcAddress.str() =~ "10.3.*.*"), expr(ipv4.srcAddress.str() =~ "10.4.*.*")]
*.router1.ppp[0].queue.classifier.packetFilters = [expr(ipv4.destAddress.str() =~ "10.0.*.*"), expr(ipv4.destAddress.str() =~ "10.1.*.*"), expr(ipv4.destAddress.str() =~ "10.2.*.*"), expr(ipv4.destAddress.str() =~ "10.3.*.*"), expr(ipv4.destAddress.str() =~ "10.4.*.*")]

**.connFIX0.datarate = 100e6 bps
**.connFIX0.delay = 40ms



[Config s4_v1500l48000d14000f36000s500]
description = "Config s4_v1500l48000d14000f36000s500"
extends = liteCbaselineTestTokenQoS_base

*.configurator.config = xmldoc("configs/baseQoS/s4_v1500l48000d14000f36000s500routingtest1.xml")
*.nVIP = 22
*.nLVD = 19
*.nVID = 20
*.nFDO = 18
*.nSSH = 22

*.router*.ppp[0].queue.typename = "HtbQueue"
*.router*.ppp[0].queue.numQueues = 5
*.router*.ppp[0].queue.queue[*].typename = "DropTailQueue"
*.router*.ppp[0].queue.packetCapacity = -1
*.router*.ppp[0].queue.htbHysterisis = false
*.router*.ppp[0].queue.htbTreeConfig = xmldoc("configs/htbTree/s4_v1500l48000d14000f36000s500_htb.xml")
*.router*.ppp[0].queue.classifier.defaultGateIndex = 0
*.router0.ppp[0].queue.classifier.packetFilters = [expr(ipv4.srcAddress.str() =~ "10.0.*.*"), expr(ipv4.srcAddress.str() =~ "10.1.*.*"), expr(ipv4.srcAddress.str() =~ "10.2.*.*"), expr(ipv4.srcAddress.str() =~ "10.3.*.*"), expr(ipv4.srcAddress.str() =~ "10.4.*.*")]
*.router1.ppp[0].queue.classifier.packetFilters = [expr(ipv4.destAddress.str() =~ "10.0.*.*"), expr(ipv4.destAddress.str() =~ "10.1.*.*"), expr(ipv4.destAddress.str() =~ "10.2.*.*"), expr(ipv4.destAddress.str() =~ "10.3.*.*"), expr(ipv4.destAddress.str() =~ "10.4.*.*")]

**.connFIX0.datarate = 100e6 bps
**.connFIX0.delay = 40ms

[Config heatMapTest_VoIP_corrected]
network = baselineTestV3

sim-time-limit=40s

output-vector-file = "${resultdir}/${configname}/${configname}-${runnumber}.vec"
output-scalar-file = "${resultdir}/${configname}/${configname}-${runnumber}.sca"

**.crcMode = "computed"

*.nVID = 0 # Number of video clients
*.nFDO = 0 # Number of file download clients
*.nSSH = 0 # Number of SSH clients
*.nVIP = 1 # Number of VoIP clients

# VoIP receiver
**.hostVIP[*].numApps = 1
**.hostVIP[*].app[0].typename = "improved5gns.apps.SimpleVoipReceiverCustom"
**.hostVIP[*].app[0].localPort = 2000
**.hostVIP[*].app[0].emodelIe = 5 # Equipment impairment factor
**.hostVIP[*].app[0].emodelBpl = 10 # Packet-loss robustness factor
**.hostVIP[*].app[0].emodelA = 5 # Advantage factor
**.hostVIP[*].app[0].emodelRo = 93.2 # Basic signal-to-noise ratio
**.hostVIP[*].app[0].playoutDelay = 0s # initial delay for beginning playout after receiving the first packet
**.hostVIP[*].app[0].adaptivePlayoutDelay = false # if true, adjust playoutDelay after each talkspurt
**.hostVIP[*].app[0].bufferSpace = 20 # buffer size in packets
**.hostVIP[*].app[0].mosSpareTime = 1s # spare time before calculating MOS (after calculated playout time of last packet)

# VoIP sender
**.serverVIP.numApps = parent.nVIP
**.serverVIP.app[*].typename = "improved5gns.apps.SimpleVoipSenderCustom"
**.serverVIP.app[*].localPort = -1
**.serverVIP.app[*].destPort = 2000
**.serverVIP.app[*].destAddress = "hostVIP[" + string(index) + "]"
**.serverVIP.app[*].talkPacketSize = 40B # size of talk packets in bytes
**.serverVIP.app[*].talkspurtDuration = weibull(1.423s, 0.824s)
**.serverVIP.app[*].silenceDuration = weibull(0.899s, 1.089s)